grid_simulations/tests/Result_no_control/output_current_end.csv
# Result_no_control/output_current_end.csv run at 2000-01-02 00:00:00 EST on 907 links
link_name,currA_mag,currA_angle,currB_mag,currB_angle,currC_mag,currC_angle
Source_Impedance,62.070580,-0.209775,53.573524,3.603236,38.933227,1.904281
TR1,62.070580,-0.209775,53.573524,3.603236,38.933227,1.904281
LINE1,1296.663720,-0.779147,1885.094977,3.311712,844.720884,1.157958
LINE2,1296.663720,-0.779147,1885.094977,3.311712,844.720884,1.157958
LINE3,1296.663720,-0.779147,1885.094977,3.311712,844.720884,1.157958
LINE4,1296.663720,-0.779147,1885.094977,3.311712,844.720884,1.157958
LINE5,1296.663720,-0.779147,1885.094977,3.311712,844.720884,1.157958
LINE6,1296.663720,-0.779147,1885.094977,3.311712,844.720884,1.157958
LINE7,1296.663720,-0.779147,1885.094977,3.311712,844.720884,1.157958
LINE8,1296.663720,-0.779147,1885.094977,3.311712,844.720884,1.157958
LINE9,1296.663720,-0.779147,1885.094977,3.311712,844.720884,1.157958
LINE10,1296.663720,-0.779147,1885.094977,3.311712,844.720884,1.157958
LINE11,1296.663720,-0.779147,1885.094977,3.311712,844.720884,1.157958
LINE12,1296.663720,-0.779147,1885.094977,3.311712,844.720884,1.157958
LINE13,1296.663720,-0.779147,1885.094977,3.311712,844.720884,1.157958
LINE14,1296.663720,-0.779147,1885.094977,3.311712,844.720884,1.157958
LINE15,0.000000,-0.218143,0.000000,4.155733,0.000000,1.572174
LINE16,1296.663720,-0.779147,1885.094977,3.311712,844.720884,1.157958
LINE17,0.000000,-0.124601,0.000000,4.306951,0.000000,1.556281
LINE18,1296.663720,-0.779147,1885.094977,3.311712,844.720884,1.157958
LINE19,0.000000,-0.222327,0.000000,4.687457,0.000000,1.592705
LINE20,1296.663720,-0.779147,1885.094977,3.311712,844.720884,1.157958
LINE21,0.000000,-0.668433,0.000000,4.687457,0.000000,1.545864
LINE22,1296.663720,-0.779147,1885.094977,3.311712,844.720884,1.157958
LINE23,0.000000,-0.488580,0.000000,4.269233,0.000000,1.545864
LINE24,1296.663720,-0.779147,1885.094977,3.311712,844.720884,1.157958
LINE25,0.000000,-0.295879,0.000000,4.031761,0.000000,1.545864
LINE26,107.296036,-0.873179,0.000000,4.014969,0.000000,1.610014
LINE27,1189.884344,-0.770680,1885.094977,3.311712,844.720884,1.157958
LINE28,0.000000,-0.437342,0.000000,3.902059,0.000000,1.545864
LINE29,53.638312,-0.873224,0.000000,3.228825,0.000000,1.702168
LINE30,53.657724,-0.873135,0.000000,4.032516,0.000000,1.611495
LINE31,1189.884344,-0.770680,1885.094977,3.311712,844.720884,1.157958
LINE32,0.000000,-0.449764,0.000000,3.968627,0.000000,1.545864
LINE33,53.638312,-0.873224,0.000000,2.409397,0.000000,1.317715
LINE34,53.657724,-0.873135,0.000000,-0.955474,0.000000,1.735168
LINE35,0.000000,-0.153420,124.354125,3.281534,0.000000,1.316170
LINE36,1189.884344,-0.770680,1760.801472,3.313843,844.720884,1.157958
LINE37,0.000000,-0.423454,0.000000,3.996120,0.000000,1.542888
LINE38,53.657724,-0.873135,0.000000,4.029255,0.000000,1.589784
LINE39,0.000000,-0.162797,62.180220,3.281546,0.000000,1.290196
LINE40,0.000000,0.336811,62.173905,3.281521,0.000000,-1.529064
LINE41,1189.884344,-0.770680,1760.801472,3.313843,844.720884,1.157958
LINE42,0.000000,4.561003,0.000000,4.521059,0.000000,0.077487
LINE43,0.000000,-0.488580,0.000000,4.099454,0.000000,1.545864
LINE44,53.657724,-0.873135,0.000000,-0.432941,0.000000,1.609900
LINE45,0.000000,-0.008314,62.180220,3.281546,0.000000,0.940135
LINE46,0.000000,-0.172066,62.173905,3.281521,0.000000,-1.376295
LINE47,1189.884344,-0.770680,1760.801472,3.313843,844.720884,1.157958
LINE48,0.000000,3.872745,0.000000,-1.113371,0.000000,-0.028321
LINE49,0.000000,-0.612935,0.000000,-1.215222,0.000000,1.545864
LINE50,53.657724,-0.873135,0.000000,2.313839,0.000000,-1.566898
LINE51,0.000000,1.657446,62.180220,3.281546,0.000000,-1.083909
LINE52,1189.884344,-0.770680,1760.801472,3.313843,844.720884,1.157958
LINE53,0.000000,-1.137071,0.000000,2.856853,0.000000,-1.332413
LINE54,0.000000,4.158317,0.000000,-1.241632,0.000000,-0.205614
LINE55,0.000000,-1.007726,0.000000,4.687457,0.000000,1.545864
LINE56,53.657724,-0.873135,0.000000,3.833422,0.000000,-1.531466
LINE57,0.000000,-0.993905,62.180220,3.281546,0.000000,-0.517877
LINE58,1189.884344,-0.770680,1760.801472,3.313843,844.720884,1.157958
LINE59,0.000000,-1.488079,0.000000,2.388491,0.000000,-1.409033
LINE60,0.000000,4.356372,0.000000,-1.445136,0.000000,-0.087683
LINE61,0.000000,-0.920987,0.000000,4.687457,0.000000,1.534501
LINE62,53.657724,-0.873135,0.000000,1.836086,0.000000,4.685699
LINE63,0.000000,3.566225,62.180220,3.281546,0.000000,-1.491810
LINE64,1075.740473,-0.763864,1760.801472,3.313843,844.720884,1.157958
LINE65,114.404071,-0.834816,0.000000,3.149224,0.000000,1.014877
LINE66,0.000000,-1.330356,0.000000,2.166518,0.000000,4.672833
LINE67,0.000000,4.251755,0.000000,-0.983898,0.000000,0.288319
LINE68,0.000000,-1.350750,0.000000,-0.488580,0.000000,1.523141
LINE69,53.657724,-0.873135,0.000000,2.873777,0.000000,2.137150
LINE70,0.000000,0.787861,62.180220,3.281546,0.000000,4.615872
LINE71,1075.740473,-0.763864,1760.801472,3.313843,844.720884,1.157958
LINE72,57.202035,-0.834816,0.000000,4.254291,0.000000,1.604636
LINE73,57.202035,-0.834816,0.000000,4.250153,0.000000,1.477197
LINE74,0.000000,-1.002749,0.000000,3.046929,0.000000,4.476735
LINE75,0.000000,4.131315,0.000000,-0.710272,0.000000,-0.064214
LINE76,0.000000,-1.518956,0.000000,-1.132081,0.000000,1.513899
LINE77,0.000000,-0.643899,62.180220,3.281546,0.000000,1.301835
LINE78,1075.740473,-0.763864,1760.801472,3.313843,844.720884,1.157958
LINE79,0.000000,-1.377252,0.000000,3.308074,0.000000,4.183570
LINE80,0.000000,4.199477,0.000000,-0.693390,0.000000,0.018487
LINE81,0.000000,-1.538647,0.000000,-0.887102,0.000000,1.518208
LINE82,0.000000,0.521465,62.180220,3.281546,0.000000,0.640111
LINE83,1075.740473,-0.763864,1760.801472,3.313843,844.720884,1.157958
LINE84,0.000000,4.223957,0.000000,0.538482,0.000000,-1.473359
LINE85,0.000000,4.219456,0.000000,-0.711153,0.000000,0.024982
LINE86,0.000000,-1.415875,0.000000,-1.132081,0.000000,1.521831
LINE87,1075.740473,-0.763864,1760.801472,3.313843,844.720884,1.157958
LINE88,0.000000,1.459684,0.000000,1.459684,0.000000,2.363912
LINE89,0.000000,4.212474,0.000000,-0.690828,0.000000,0.032262
LINE90,0.000000,-1.398333,0.000000,-0.488580,0.000000,1.520870
LINE91,1075.740473,-0.763864,1760.801472,3.313843,844.720884,1.157958
LINE92,0.000000,4.600809,0.000000,-0.437168,0.000000,-0.432712
LINE93,0.000000,4.687457,0.000000,-0.488580,0.000000,1.514625
LINE94,1075.740473,-0.763864,1760.801472,3.313843,844.720884,1.157958
LINE95,0.000000,-1.416890,0.000000,-0.352248,0.000000,-1.094946
LINE96,0.000000,2.653013,0.000000,-0.269911,0.000000,0.000000
LINE97,1075.740473,-0.763864,1760.801472,3.313843,844.720884,1.157958
LINE98,0.000000,-0.744800,0.000000,4.556584,0.000000,0.033485
LINE99,0.000000,1.545864,0.000000,0.438716,0.000000,4.687457
LINE100,1075.740473,-0.763864,1760.801472,3.313843,844.720884,1.157958
LINE101,0.000000,-1.390305,0.000000,4.421894,0.000000,-0.110702
LINE102,0.000000,0.000000,0.000000,0.000000,0.000000,0.000000
LINE103,58.372652,-0.819950,228.637469,3.299925,110.631033,1.182283
LINE104,1017.464867,-0.760648,1532.189451,3.315920,734.127510,1.154293
LINE105,0.000000,-1.178526,0.000000,4.269360,0.000000,-0.596360
LINE106,58.372652,-0.819950,228.637469,3.299925,110.631033,1.182283
LINE107,1017.464867,-0.760648,1532.189451,3.315920,734.127510,1.154293
LINE108,0.000000,-1.384877,0.000000,-1.449110,0.000000,-0.643267
LINE109,58.372652,-0.819950,228.637469,3.299925,110.631033,1.182283
LINE110,1017.464867,-0.760648,1532.189451,3.315920,734.127510,1.154293
LINE111,0.000000,-1.385504,0.000000,-1.487656,0.000000,-0.715110
LINE112,58.372652,-0.819950,228.637469,3.299925,110.631033,1.182283
LINE113,1017.464867,-0.760648,1532.189451,3.315920,734.127510,1.154293
LINE114,0.000000,-1.385737,0.000000,-1.501574,0.000000,-0.711380
LINE115,58.372652,-0.819950,228.637469,3.299925,110.631033,1.182283
LINE116,59.183207,-0.811753,159.449241,3.305520,111.478647,1.178388
LINE117,958.363696,-0.757494,1372.749834,3.317128,622.687016,1.149979
LINE118,0.000000,-1.384926,0.000000,-1.462598,0.000000,-0.716323
LINE119,58.372652,-0.819950,228.637469,3.299925,110.631033,1.182283
LINE120,0.000000,2.653013,0.000000,1.026718,0.000000,4.625038
LINE121,59.183207,-0.811753,159.449241,3.305520,111.478647,1.178388
LINE122,958.363696,-0.757494,1372.749834,3.317128,622.687016,1.149979
LINE123,0.000000,-1.251988,0.000000,-1.517608,0.000000,-0.746888
LINE124,58.372652,-0.819950,228.637469,3.299925,110.631033,1.182283
LINE125,0.000000,2.871682,0.000000,0.837238,0.000000,4.612597
LINE126,59.183207,-0.811753,159.449241,3.305520,111.478647,1.178388
LINE127,958.363696,-0.757494,1372.749834,3.317128,622.687016,1.149979
LINE128,0.000000,-1.196320,0.000000,-1.423638,0.000000,-0.731846
LINE129,58.372652,-0.819950,228.637469,3.299925,110.631033,1.182283
LINE130,0.000000,2.871682,0.000000,0.563071,0.000000,4.625038
LINE131,59.183207,-0.811753,0.000000,-0.032858,0.000000,0.877365
LINE132,0.000000,3.687492,159.449241,3.305520,111.478647,1.178388
LINE133,958.363696,-0.757494,1372.749834,3.317128,622.687016,1.149979
LINE134,0.000000,-1.116016,0.000000,-1.537986,0.000000,-0.797954
LINE135,58.372652,-0.819950,228.637469,3.299925,110.631033,1.182283
LINE136,0.000000,3.361639,0.000000,0.438716,0.000000,4.625038
LINE137,59.183207,-0.811753,0.000000,-0.006618,0.000000,0.714245
LINE138,0.000000,3.688992,159.449241,3.305520,111.478647,1.178388
LINE139,958.363696,-0.757494,1372.749834,3.317128,622.687016,1.149979
LINE140,0.000000,-1.124696,0.000000,-1.475846,0.000000,-0.766622
LINE141,58.372652,-0.819950,228.637469,3.299925,110.631033,1.182283
LINE142,0.000000,2.473160,0.000000,0.669806,0.000000,4.563102
LINE143,59.183207,-0.811753,0.000000,-0.054383,0.000000,0.617169
LINE144,0.000000,3.661470,159.449241,3.305520,111.478647,1.178388
LINE145,958.363696,-0.757494,1372.749834,3.317128,622.687016,1.149979
LINE146,0.000000,-1.335650,0.000000,-1.532437,0.000000,-0.878266
LINE147,58.372652,-0.819950,228.637469,3.299925,110.631033,1.182283
LINE148,0.000000,2.653013,0.000000,0.266525,0.000000,4.637499
LINE149,59.183207,-0.811753,0.000000,-0.058412,0.000000,-0.573843
LINE150,0.000000,3.646272,0.000000,1.614251,111.478647,1.178388
LINE151,0.000000,0.195847,159.449241,3.305520,0.000000,1.513903
LINE152,958.363696,-0.757494,1372.749834,3.317128,622.687016,1.149979
LINE153,0.000000,-1.315456,0.000000,-1.032600,0.000000,-1.249267
LINE154,58.372652,-0.819950,228.637469,3.299925,110.631033,1.182283
LINE155,0.000000,2.009512,0.000000,0.333839,0.000000,4.442478
LINE156,59.183207,-0.811753,0.000000,-0.031600,0.000000,-0.531979
LINE157,0.000000,3.664228,0.000000,1.671493,111.478647,1.178388
LINE158,0.000000,0.217346,159.449241,3.305520,0.000000,1.403402
LINE159,958.363696,-0.757494,1372.749834,3.317128,622.687016,1.149979
LINE160,0.000000,0.225931,0.000000,-1.211944,0.000000,0.065358
LINE161,0.000000,2.142021,75.585812,3.299188,0.000000,4.604990
LINE162,58.372652,-0.819950,153.051687,3.300289,110.631033,1.182283
LINE163,0.000000,2.133867,0.000000,0.438716,0.000000,4.563102
LINE164,59.183207,-0.811753,0.000000,-0.050554,0.000000,-0.668844
LINE165,0.000000,3.672664,0.000000,1.616104,111.478647,1.178388
LINE166,0.000000,0.366153,159.449241,3.305520,0.000000,-1.056937
LINE167,958.363696,-0.757494,1372.749834,3.317128,622.687016,1.149979
LINE168,0.000000,-0.083566,0.000000,0.367136,0.000000,4.302389
LINE169,0.000000,2.633346,75.585812,3.299188,0.000000,4.472478
LINE170,58.372652,-0.819950,153.051687,3.300289,110.631033,1.182283
LINE171,0.000000,2.009512,0.000000,0.140217,0.000000,4.502109
LINE172,59.183207,-0.811753,0.000000,0.002233,0.000000,-0.621816
LINE173,0.000000,3.543603,0.000000,1.042367,0.000000,4.355421
LINE174,0.000000,-0.992701,0.000000,2.954327,111.478647,1.178388
LINE175,0.000000,0.539817,159.449241,3.305520,0.000000,4.611086
LINE176,958.363696,-0.757494,1372.749834,3.317128,622.687016,1.149979
LINE177,0.000000,0.865065,75.585812,3.299188,0.000000,4.696534
LINE178,58.372652,-0.819950,153.051687,3.300289,0.000000,1.187147
LINE179,0.000000,-1.371107,0.000000,-0.571814,110.631033,1.182283
LINE180,0.000000,0.618569,0.000000,-0.024932,0.000000,-1.533309
LINE181,59.183207,-0.811753,0.000000,-0.033899,0.000000,-1.057301
LINE182,0.000000,3.558970,0.000000,0.942425,0.000000,4.324262
LINE183,0.000000,-1.003413,0.000000,2.995763,111.478647,1.178388
LINE184,0.000000,0.673186,159.449241,3.305520,0.000000,4.701635
LINE185,958.363696,-0.757494,1372.749834,3.317128,622.687016,1.149979
LINE186,58.372652,-0.819950,153.051687,3.300289,0.000000,0.753214
LINE187,0.000000,-1.380065,0.000000,-0.511223,110.631033,1.182283
LINE188,0.000000,0.438716,0.000000,0.438716,0.000000,4.687457
LINE189,59.183207,-0.811753,0.000000,0.022818,0.000000,-0.852430
LINE190,0.000000,2.519952,0.000000,-0.718028,0.000000,4.640608
LINE191,0.000000,3.734546,0.000000,1.223180,0.000000,4.394312
LINE192,0.000000,-1.212639,0.000000,2.983168,111.478647,1.178388
LINE193,0.000000,0.757079,159.449241,3.305520,0.000000,-1.562609
LINE194,958.363696,-0.757494,1372.749834,3.317128,622.687016,1.149979
LINE195,58.372652,-0.819950,153.051687,3.300289,0.000000,0.876755
LINE196,0.000000,1.291809,0.000000,-0.409211,55.305415,1.182237
LINE197,0.000000,-1.413387,0.000000,-0.511392,55.325618,1.182328
LINE198,0.000000,1.545864,0.000000,1.545864,0.000000,4.625038
LINE199,59.183207,-0.811753,0.000000,-0.018111,0.000000,-0.833098
LINE200,0.000000,-1.083672,0.000000,1.938277,0.000000,4.710551
LINE201,0.000000,4.119248,0.000000,1.820367,0.000000,4.609006
LINE202,0.000000,-1.346295,0.000000,2.988135,111.478647,1.178388
LINE203,0.000000,1.134528,159.449241,3.305520,0.000000,4.690845
LINE204,958.363696,-0.757494,1372.749834,3.317128,622.687016,1.149979
LINE205,58.372652,-0.819950,0.000000,-1.237291,0.000000,1.665012
LINE206,0.000000,2.761884,153.051687,3.300289,0.000000,1.237836
LINE207,0.000000,-0.672188,0.000000,-0.195174,55.305415,1.182237
LINE208,0.000000,4.684001,0.000000,-0.503939,55.325618,1.182328
LINE209,0.000000,1.545864,0.000000,4.687457,0.000000,1.670219
LINE210,59.183207,-0.811753,0.000000,0.002893,0.000000,-0.308734
LINE211,0.000000,3.901749,0.000000,0.294016,0.000000,-1.562519
LINE212,0.000000,-1.532803,0.000000,2.714466,111.478647,1.178388
LINE213,0.000000,0.948128,159.449241,3.305520,0.000000,4.676747
LINE214,958.363696,-0.757494,1372.749834,3.317128,622.687016,1.149979
LINE215,58.372652,-0.819950,0.000000,-0.907321,0.000000,1.895706
LINE216,0.000000,2.649830,153.051687,3.300289,0.000000,1.464925
LINE217,0.000000,4.248925,0.000000,-0.303302,55.325618,1.182328
LINE218,0.000000,0.000000,0.000000,0.000000,0.000000,0.000000
LINE219,59.183207,-0.811753,0.000000,-0.022791,0.000000,-0.445609
LINE220,0.000000,4.580419,0.000000,0.530012,0.000000,-1.249655
LINE221,0.000000,4.617130,0.000000,2.626901,111.478647,1.178388
LINE222,0.000000,0.765659,159.449241,3.305520,0.000000,4.657065
LINE223,958.363696,-0.757494,1372.749834,3.317128,622.687016,1.149979
LINE224,58.372652,-0.819950,0.000000,-0.015756,0.000000,1.593672
LINE225,0.000000,2.656753,153.051687,3.300289,0.000000,1.557835
LINE226,0.000000,-1.529572,0.000000,-1.459203,55.325618,1.182328
LINE227,59.183207,-0.811753,0.000000,-0.016301,0.000000,0.396564
LINE228,0.000000,4.686769,0.000000,0.273849,0.000000,-1.177466
LINE229,0.000000,4.654943,0.000000,2.702861,111.478647,1.178388
LINE230,0.000000,1.110754,159.449241,3.305520,0.000000,4.650553
LINE231,958.363696,-0.757494,1372.749834,3.317128,622.687016,1.149979
LINE232,0.000000,-1.063895,153.051687,3.300289,0.000000,1.569869
LINE233,0.000000,1.000079,0.000000,1.000079,0.000000,1.987845
LINE234,0.000000,-0.760752,0.000000,-1.165274,55.325618,1.182328
LINE235,59.183207,-0.811753,0.000000,-0.581120,0.000000,-0.981669
LINE236,0.000000,4.615500,0.000000,0.095151,0.000000,4.224368
LINE237,0.000000,-1.254802,0.000000,2.780128,111.478647,1.178388
LINE238,0.000000,1.487474,159.449241,3.305520,0.000000,4.644486
LINE239,958.363696,-0.757494,1372.749834,3.317128,622.687016,1.149979
LINE240,0.000000,-0.590617,153.051687,3.300289,0.000000,1.936510
LINE241,0.000000,-0.534381,0.000000,-0.534381,55.325618,1.182328
LINE242,59.183207,-0.811753,0.000000,-0.238147,0.000000,-1.250352
LINE243,0.000000,-1.223460,0.000000,0.502572,0.000000,1.307853
LINE244,0.000000,-1.411598,0.000000,2.695050,111.478647,1.178388
LINE245,0.000000,1.651734,159.449241,3.305520,0.000000,4.579896
LINE246,958.363696,-0.757494,1372.749834,3.317128,622.687016,1.149979
LINE247,0.000000,-0.877316,76.525844,3.300289,0.000000,4.651022
LINE248,0.000000,-0.877316,76.525844,3.300289,0.000000,4.651022
LINE249,0.000000,-0.370201,0.000000,2.835489,55.325618,1.182328
LINE250,59.183207,-0.811753,0.000000,-0.020138,0.000000,0.271061
LINE251,0.000000,-0.371547,0.000000,0.333302,0.000000,3.997217
LINE252,0.000000,-1.342413,0.000000,2.536194,111.478647,1.178388
LINE253,0.000000,1.583812,159.449241,3.305520,0.000000,4.575358
LINE254,61.025729,-0.796640,0.000000,2.974748,0.000000,4.627236
LINE255,897.387896,-0.754832,1372.749834,3.317128,622.687016,1.149979
LINE256,0.000000,4.308142,0.000000,3.755825,55.325618,1.182328
LINE257,59.183207,-0.811753,0.000000,-0.019003,0.000000,1.549124
LINE258,0.000000,1.186244,0.000000,-0.893317,0.000000,2.887800
LINE259,0.000000,4.598471,0.000000,2.483776,111.478647,1.178388
LINE260,0.000000,1.850943,159.449241,3.305520,0.000000,4.404491
LINE261,61.025729,-0.796640,0.000000,2.989277,0.000000,4.614366
LINE262,897.387896,-0.754832,1372.749834,3.317128,622.687016,1.149979
LINE263,0.000000,2.739767,0.000000,2.172094,55.325618,1.182328
LINE264,59.183207,-0.811753,0.000000,-0.975111,0.000000,1.200646
LINE265,0.000000,3.621596,0.000000,-0.887299,0.000000,1.750789
LINE266,0.000000,4.513842,0.000000,2.425218,111.478647,1.178388
LINE267,0.000000,2.148918,79.772232,3.305667,0.000000,1.474386
LINE268,0.000000,2.259797,79.677010,3.305373,0.000000,4.528941
LINE269,61.025729,-0.796640,0.000000,2.965260,0.000000,4.594752
LINE270,0.000000,0.338643,0.000000,3.766887,56.156973,1.168729
LINE271,897.387896,-0.754832,1372.749834,3.317128,566.540891,1.148121
LINE272,59.183207,-0.811753,0.000000,-0.227361,0.000000,1.614010
LINE273,0.000000,0.006718,0.000000,3.387376,0.000000,2.632178
LINE274,0.000000,-1.531169,0.000000,2.732648,111.478647,1.178388
LINE275,0.000000,1.509152,79.772232,3.305667,0.000000,1.548630
LINE276,0.000000,2.346274,79.677010,3.305373,0.000000,4.401902
LINE277,61.025729,-0.796640,0.000000,2.926557,0.000000,4.596601
LINE278,0.000000,0.317343,0.000000,3.437915,56.156973,1.168729
LINE279,897.387896,-0.754832,1372.749834,3.317128,566.540891,1.148121
LINE280,59.183207,-0.811753,0.000000,4.162733,0.000000,1.559320
LINE281,0.000000,4.069843,0.000000,4.065647,0.000000,2.512510
LINE282,0.000000,4.236919,0.000000,2.080717,111.478647,1.178388
LINE283,0.000000,2.377766,79.677010,3.305373,0.000000,4.346178
LINE284,61.025729,-0.796640,0.000000,2.896839,0.000000,4.602735
LINE285,0.000000,0.273191,0.000000,3.652135,56.156973,1.168729
LINE286,453.249424,-0.757813,430.152746,3.299917,111.327427,1.156605
LINE287,444.142542,-0.751790,942.689858,3.324980,455.218451,1.146046
LINE288,59.183207,-0.811753,0.000000,3.119448,0.000000,1.632912
LINE289,0.000000,0.910330,0.000000,4.074052,0.000000,4.691622
LINE290,0.000000,1.057813,0.000000,2.329510,55.768894,1.178519
LINE291,0.000000,4.278242,0.000000,2.347294,55.709754,1.178257
LINE292,0.000000,2.563212,79.677010,3.305373,0.000000,4.412957
LINE293,61.025729,-0.796640,0.000000,2.940330,0.000000,4.585076
LINE294,0.000000,0.169191,0.000000,3.517159,56.156973,1.168729
LINE295,453.249424,-0.757813,430.152746,3.299917,111.327427,1.156605
LINE296,444.142542,-0.751790,942.689858,3.324980,455.218451,1.146046
LINE297,0.000000,2.239746,0.000000,1.771110,55.768894,1.178519
LINE298,0.000000,4.558082,0.000000,2.821071,55.709754,1.178257
LINE299,0.000000,3.092047,79.677010,3.305373,0.000000,3.278045
LINE300,61.025729,-0.796640,0.000000,2.880615,0.000000,4.612039
LINE301,0.000000,0.056423,0.000000,3.368896,56.156973,1.168729
LINE302,453.249424,-0.757813,430.152746,3.299917,111.327427,1.156605
LINE303,444.142542,-0.751790,942.689858,3.324980,455.218451,1.146046
LINE304,0.000000,2.765852,0.000000,0.127203,55.768894,1.178519
LINE305,0.000000,2.705956,0.000000,0.447937,55.709754,1.178257
LINE306,0.000000,1.734305,79.677010,3.305373,0.000000,2.614644
LINE307,61.025729,-0.796640,0.000000,2.967322,0.000000,4.666865
LINE308,0.000000,-0.514192,0.000000,3.118681,56.156973,1.168729
LINE309,453.249424,-0.757813,430.152746,3.299917,111.327427,1.156605
LINE310,444.142542,-0.751790,942.689858,3.324980,455.218451,1.146046
LINE311,0.000000,3.154499,0.000000,-0.473260,55.768894,1.178519
LINE312,0.000000,2.914735,0.000000,0.030867,55.709754,1.178257
LINE313,0.000000,-1.211359,79.677010,3.305373,0.000000,2.169624
LINE314,61.025729,-0.796640,0.000000,2.941250,0.000000,4.661679
LINE315,0.000000,-0.507476,0.000000,3.221429,56.156973,1.168729
LINE316,124.679353,-0.785746,0.000000,3.361802,0.000000,1.421645
LINE317,328.637154,-0.747218,430.152746,3.299917,111.327427,1.156605
LINE318,444.142542,-0.751790,942.689858,3.324980,455.218451,1.146046
LINE319,0.000000,3.079614,0.000000,-1.044125,55.768894,1.178519
LINE320,0.000000,2.570838,0.000000,0.326446,55.709754,1.178257
LINE321,61.025729,-0.796640,0.000000,2.945158,0.000000,4.655997
LINE322,0.000000,2.548994,0.000000,3.031287,56.156973,1.168729
LINE323,124.679353,-0.785746,0.000000,3.319207,0.000000,1.416297
LINE324,328.637154,-0.747218,430.152746,3.299917,111.327427,1.156605
LINE325,444.142542,-0.751790,942.689858,3.324980,455.218451,1.146046
LINE326,0.000000,1.078814,0.000000,-1.114197,55.709754,1.178257
LINE327,61.025729,-0.796640,0.000000,2.907472,0.000000,4.659527
LINE328,0.000000,4.145901,0.000000,3.327924,56.156973,1.168729
LINE329,124.679353,-0.785746,0.000000,3.323073,0.000000,1.407885
LINE330,0.000000,-0.348386,0.000000,2.040408,56.044599,1.165019
LINE331,328.637154,-0.747218,430.152746,3.299917,55.286823,1.148076
LINE332,444.142542,-0.751790,942.689858,3.324980,455.218451,1.146046
LINE333,61.025729,-0.796640,0.000000,2.908269,0.000000,4.647336
LINE334,0.000000,2.359737,0.000000,2.894344,56.156973,1.168729
LINE335,124.679353,-0.785746,0.000000,3.291711,0.000000,1.413632
LINE336,0.000000,-0.510239,0.000000,-0.467243,56.044599,1.165019
LINE337,0.000000,0.038878,94.446892,3.297615,0.000000,-1.358405
LINE338,328.637154,-0.747218,335.706174,3.300565,55.286823,1.148076
LINE339,444.142542,-0.751790,942.689858,3.324980,455.218451,1.146046
LINE340,61.025729,-0.796640,0.000000,2.926959,0.000000,4.638413
LINE341,0.000000,-1.262961,0.000000,-0.181859,56.156973,1.168729
LINE342,62.303352,-0.785889,0.000000,0.572732,0.000000,-1.541819
LINE343,62.376003,-0.785602,0.000000,3.340999,0.000000,1.402598
LINE344,0.000000,0.035968,94.446892,3.297615,0.000000,-1.355681
LINE345,328.637154,-0.747218,335.706174,3.300565,55.286823,1.148076
LINE346,444.142542,-0.751790,942.689858,3.324980,455.218451,1.146046
LINE347,61.025729,-0.796640,0.000000,2.925923,0.000000,4.674314
LINE348,62.303352,-0.785889,0.000000,-1.000601,0.000000,1.667221
LINE349,62.376003,-0.785602,0.000000,3.030404,0.000000,1.442583
LINE350,0.000000,-0.034759,94.446892,3.297615,0.000000,-1.379714
LINE351,328.637154,-0.747218,335.706174,3.300565,55.286823,1.148076
LINE352,444.142542,-0.751790,942.689858,3.324980,455.218451,1.146046
LINE353,61.025729,-0.796640,0.000000,2.900984,0.000000,4.669783
LINE354,62.376003,-0.785602,0.000000,3.246532,0.000000,1.077692
LINE355,0.000000,-0.024527,94.446892,3.297615,0.000000,-1.359872
LINE356,328.637154,-0.747218,335.706174,3.300565,55.286823,1.148076
LINE357,444.142542,-0.751790,942.689858,3.324980,455.218451,1.146046
LINE358,61.025729,-0.796640,0.000000,3.121463,0.000000,4.662591
LINE359,62.376003,-0.785602,0.000000,3.357142,0.000000,0.884849
LINE360,0.000000,0.135333,94.446892,3.297615,0.000000,-1.441809
LINE361,328.637154,-0.747218,335.706174,3.300565,55.286823,1.148076
LINE362,444.142542,-0.751790,942.689858,3.324980,455.218451,1.146046
LINE363,61.025729,-0.796640,0.000000,3.237381,0.000000,4.608947
LINE364,62.376003,-0.785602,0.000000,3.326846,0.000000,0.355810
LINE365,0.000000,0.341390,94.446892,3.297615,0.000000,-1.424295
LINE366,328.637154,-0.747218,335.706174,3.300565,55.286823,1.148076
LINE367,444.142542,-0.751790,942.689858,3.324980,455.218451,1.146046
LINE368,61.025729,-0.796640,0.000000,3.087123,0.000000,1.300883
LINE369,62.376003,-0.785602,0.000000,-1.568405,0.000000,1.478560
LINE370,0.000000,-1.136216,94.446892,3.297615,0.000000,-1.017278
LINE371,328.637154,-0.747218,335.706174,3.300565,55.286823,1.148076
LINE372,444.142542,-0.751790,942.689858,3.324980,455.218451,1.146046
LINE373,61.025729,-0.796640,0.000000,4.252154,0.000000,4.464825
LINE374,62.376003,-0.785602,0.000000,2.449761,0.000000,1.745943
LINE375,0.000000,-0.481379,94.446892,3.297615,0.000000,-1.141759
LINE376,328.637154,-0.747218,335.706174,3.300565,55.286823,1.148076
LINE377,444.142542,-0.751790,942.689858,3.324980,398.683663,1.143418
LINE378,0.000000,3.441373,0.000000,1.957623,56.545873,1.164576
LINE379,61.025729,-0.796640,0.000000,-0.113040,0.000000,4.507137
LINE380,62.376003,-0.785602,0.000000,1.969401,0.000000,1.489123
LINE381,0.000000,1.759715,94.446892,3.297615,0.000000,-1.307548
LINE382,328.637154,-0.747218,335.706174,3.300565,55.286823,1.148076
LINE383,444.142542,-0.751790,942.689858,3.324980,398.683663,1.143418
LINE384,0.000000,2.852418,0.000000,2.812290,56.545873,1.164576
LINE385,0.000000,3.638930,0.000000,0.474559,0.000000,4.675799
LINE386,61.025729,-0.796640,0.000000,3.187054,0.000000,1.922737
LINE387,62.376003,-0.785602,0.000000,3.899925,0.000000,-1.566465
LINE388,0.000000,3.347966,94.446892,3.297615,0.000000,-1.389932
LINE389,328.637154,-0.747218,335.706174,3.300565,55.286823,1.148076
LINE390,444.142542,-0.751790,942.689858,3.324980,398.683663,1.143418
LINE391,0.000000,2.840278,0.000000,2.820083,56.545873,1.164576
LINE392,0.000000,3.657997,0.000000,0.425397,0.000000,4.674681
LINE393,0.000000,4.516144,94.446892,3.297615,0.000000,-1.503349
LINE394,328.637154,-0.747218,335.706174,3.300565,55.286823,1.148076
LINE395,0.000000,0.030221,0.000000,-0.204177,113.641463,1.162246
LINE396,444.142542,-0.751790,942.689858,3.324980,285.070372,1.135912
LINE397,0.000000,3.372877,0.000000,2.908251,56.545873,1.164576
LINE398,0.000000,3.689591,0.000000,0.563632,0.000000,4.655103
LINE399,0.000000,0.079418,94.446892,3.297615,0.000000,-1.191283
LINE400,328.637154,-0.747218,335.706174,3.300565,55.286823,1.148076
LINE401,0.000000,-0.018981,0.000000,-0.206256,113.641463,1.162246
LINE402,444.142542,-0.751790,942.689858,3.324980,285.070372,1.135912
LINE403,0.000000,3.995408,0.000000,1.865123,56.545873,1.164576
LINE404,0.000000,3.940387,0.000000,0.050522,0.000000,4.657369
LINE405,0.000000,2.892812,94.446892,3.297615,0.000000,4.522924
LINE406,328.637154,-0.747218,335.706174,3.300565,55.286823,1.148076
LINE407,0.000000,0.087297,0.000000,-0.062940,113.641463,1.162246
LINE408,444.142542,-0.751790,942.689858,3.324980,285.070372,1.135912
LINE409,0.000000,-0.555259,0.000000,3.284816,0.000000,1.371189
LINE410,0.000000,3.319854,0.000000,2.480935,56.545873,1.164576
LINE411,0.000000,4.154437,0.000000,0.019642,0.000000,4.662598
LINE412,328.637154,-0.747218,335.706174,3.300565,55.286823,1.148076
LINE413,0.000000,0.422475,0.000000,-0.010584,113.641463,1.162246
LINE414,444.142542,-0.751790,942.689858,3.324980,285.070372,1.135912
LINE415,0.000000,-0.533098,0.000000,3.252383,0.000000,1.381642
LINE416,0.000000,3.395577,0.000000,2.055981,56.545873,1.164576
LINE417,0.000000,3.825421,0.000000,-0.048107,0.000000,-1.523844
LINE418,328.637154,-0.747218,335.706174,3.300565,55.286823,1.148076
LINE419,0.000000,0.093825,0.000000,0.038878,113.641463,1.162246
LINE420,444.142542,-0.751790,942.689858,3.324980,285.070372,1.135912
LINE421,0.000000,-0.618075,0.000000,3.292936,0.000000,1.440443
LINE422,0.000000,3.736935,0.000000,1.345579,56.545873,1.164576
LINE423,0.000000,3.833139,0.000000,-0.162179,0.000000,-1.546584
LINE424,328.637154,-0.747218,335.706174,3.300565,55.286823,1.148076
LINE425,0.000000,0.000000,0.000000,0.000000,0.000000,0.000000
LINE426,0.000000,0.208449,0.000000,0.045917,113.641463,1.162246
LINE427,444.142542,-0.751790,942.689858,3.324980,285.070372,1.135912
LINE428,0.000000,-0.605443,0.000000,3.327076,0.000000,1.416810
LINE429,0.000000,3.190677,0.000000,0.266323,56.545873,1.164576
LINE430,0.000000,3.834912,0.000000,-0.174157,0.000000,-1.568685
LINE431,328.637154,-0.747218,335.706174,3.300565,55.286823,1.148076
LINE432,0.000000,0.000000,0.000000,0.000000,0.000000,0.000000
LINE433,0.000000,0.139282,0.000000,0.042796,113.641463,1.162246
LINE434,444.142542,-0.751790,942.689858,3.324980,285.070372,1.135912
LINE435,0.000000,-0.606631,0.000000,3.347444,0.000000,1.425346
LINE436,0.000000,-0.369137,0.000000,1.322686,56.545873,1.164576
LINE437,0.000000,3.639140,0.000000,-0.221119,0.000000,4.701891
LINE438,328.637154,-0.747218,335.706174,3.300565,55.286823,1.148076
LINE439,0.000000,0.000000,0.000000,0.000000,0.000000,0.000000
LINE440,0.000000,-0.033107,0.000000,0.009595,113.641463,1.162246
LINE441,444.142542,-0.751790,942.689858,3.324980,285.070372,1.135912
LINE442,0.000000,-0.651405,0.000000,3.371960,0.000000,1.352285
LINE443,0.000000,3.345364,0.000000,1.179090,56.545873,1.164576
LINE444,0.000000,3.883694,0.000000,-0.134168,0.000000,4.660893
LINE445,328.637154,-0.747218,335.706174,3.300565,55.286823,1.148076
LINE446,0.000000,-0.140756,0.000000,2.939912,0.000000,2.693546
LINE447,0.000000,0.061753,0.000000,-0.015218,113.641463,1.162246
LINE448,444.142542,-0.751790,942.689858,3.324980,285.070372,1.135912
LINE449,0.000000,-0.713349,0.000000,3.353852,0.000000,1.387776
LINE450,0.000000,1.233554,0.000000,-1.437530,56.545873,1.164576
LINE451,0.000000,3.698779,0.000000,-0.182729,0.000000,4.710710
LINE452,328.637154,-0.747218,335.706174,3.300565,55.286823,1.148076
LINE453,0.000000,3.668677,0.000000,0.404551,0.000000,4.543468
LINE454,0.000000,0.007001,0.000000,0.025567,113.641463,1.162246
LINE455,444.142542,-0.751790,942.689858,3.324980,285.070372,1.135912
LINE456,0.000000,-0.560169,0.000000,3.348093,0.000000,1.412901
LINE457,0.000000,3.546515,0.000000,-1.112724,56.545873,1.164576
LINE458,0.000000,3.622199,0.000000,-0.256884,0.000000,4.642927
LINE459,263.569493,-0.745050,335.706174,3.300565,55.286823,1.148076
LINE460,0.000000,-0.665328,0.000000,2.532539,0.000000,-0.665328
LINE461,65.070790,-0.755999,0.000000,0.179502,0.000000,1.181288
LINE462,0.000000,-0.258151,0.000000,0.068145,113.641463,1.162246
LINE463,444.142542,-0.751790,942.689858,3.324980,285.070372,1.135912
LINE464,0.000000,-0.650891,0.000000,3.115026,0.000000,1.490292
LINE465,0.000000,3.469876,0.000000,-0.254882,0.000000,4.692846
LINE466,263.569493,-0.745050,335.706174,3.300565,55.286823,1.148076
LINE467,0.000000,-1.084985,0.000000,3.928821,0.000000,4.411920
LINE468,0.000000,2.939912,0.000000,2.939912,0.000000,-0.145406
LINE469,65.070790,-0.755999,0.000000,0.170769,0.000000,1.178838
LINE470,0.000000,-0.442359,0.000000,0.082342,113.641463,1.162246
LINE471,444.142542,-0.751790,942.689858,3.324980,285.070372,1.135912
LINE472,0.000000,-0.412262,0.000000,3.227521,0.000000,1.659718
LINE473,0.000000,3.500982,0.000000,-0.150719,0.000000,4.690113
LINE474,263.569493,-0.745050,335.706174,3.300565,55.286823,1.148076
LINE475,0.000000,-1.095390,0.000000,4.242416,0.000000,0.683251
LINE476,65.070790,-0.755999,0.000000,0.192543,0.000000,1.204391
LINE477,0.000000,-0.162903,0.000000,0.088777,113.641463,1.162246
LINE478,444.142542,-0.751790,942.689858,3.324980,285.070372,1.135912
LINE479,0.000000,-0.340069,0.000000,3.350580,0.000000,1.537363
LINE480,0.000000,3.692334,0.000000,-0.015944,0.000000,-1.557261
LINE481,131.847543,-0.741926,335.706174,3.300565,55.286823,1.148076
LINE482,0.000000,0.998221,0.000000,0.862162,0.000000,4.373857
LINE483,131.723236,-0.748176,0.000000,0.339338,0.000000,-1.562245
LINE484,65.070790,-0.755999,0.000000,0.261859,0.000000,1.283695
LINE485,0.000000,-0.573105,0.000000,0.005013,113.641463,1.162246
LINE486,444.142542,-0.751790,942.689858,3.324980,285.070372,1.135912
LINE487,0.000000,-0.479601,0.000000,3.397261,0.000000,1.574066
LINE488,0.000000,4.626981,0.000000,-0.848736,0.000000,0.012469
LINE489,131.847543,-0.741926,335.706174,3.300565,55.286823,1.148076
LINE490,0.000000,-1.128976,0.000000,3.607953,0.000000,1.523402
LINE491,65.847062,-0.748231,0.000000,0.370693,0.000000,-1.564089
LINE492,65.876175,-0.748122,0.000000,3.837791,0.000000,1.374113
LINE493,65.070790,-0.755999,0.000000,0.236390,0.000000,1.299203
LINE494,0.000000,2.706159,0.000000,-0.089805,113.641463,1.162246
LINE495,444.142542,-0.751790,942.689858,3.324980,285.070372,1.135912
LINE496,0.000000,-0.475633,0.000000,3.511158,0.000000,1.553948
LINE497,0.000000,3.051859,0.000000,-0.025237,0.000000,-1.450814
LINE498,131.847543,-0.741926,335.706174,3.300565,55.286823,1.148076
LINE499,0.000000,0.880037,0.000000,3.334180,0.000000,2.176313
LINE500,65.847062,-0.748231,0.000000,0.336807,0.000000,-1.533559
LINE501,65.876175,-0.748122,0.000000,-1.211648,0.000000,1.370122
LINE502,65.070790,-0.755999,0.000000,0.215487,0.000000,1.278203
LINE503,0.000000,3.320164,0.000000,0.034664,113.641463,1.162246
LINE504,444.142542,-0.751790,942.689858,3.324980,285.070372,1.135912
LINE505,0.000000,-0.582271,0.000000,3.484599,0.000000,1.590383
LINE506,0.000000,0.000000,0.000000,0.000000,0.000000,0.000000
LINE507,131.847543,-0.741926,335.706174,3.300565,55.286823,1.148076
LINE508,0.000000,3.261663,0.000000,0.395102,0.000000,-0.773466
LINE509,65.847062,-0.748231,0.000000,0.301391,0.000000,-1.523301
LINE510,65.070790,-0.755999,0.000000,0.215849,0.000000,1.180787
LINE511,0.000000,3.104736,0.000000,0.201285,113.641463,1.162246
LINE512,0.000000,1.450062,100.378791,3.308470,0.000000,0.679661
LINE513,444.142542,-0.751790,842.326378,3.326948,285.070372,1.135912
LINE514,0.000000,-0.601804,0.000000,3.603312,0.000000,1.586121
LINE515,0.000000,1.126027,335.706174,3.300565,55.286823,1.148076
LINE516,0.000000,-1.447008,0.000000,3.451896,0.000000,1.583769
LINE517,131.847543,-0.741926,0.000000,2.876943,0.000000,1.546004
LINE518,65.847062,-0.748231,0.000000,0.118148,0.000000,4.707644
LINE519,65.070790,-0.755999,0.000000,0.189993,0.000000,1.187088
LINE520,0.000000,2.609920,0.000000,1.239813,113.641463,1.162246
LINE521,0.000000,4.400220,100.378791,3.308470,0.000000,-1.564464
LINE522,444.142542,-0.751790,842.326378,3.326948,285.070372,1.135912
LINE523,0.000000,-0.398329,0.000000,3.482229,0.000000,1.617129
LINE524,0.000000,1.101207,335.706174,3.300565,55.286823,1.148076
LINE525,0.000000,3.270805,0.000000,3.073147,0.000000,4.607308
LINE526,131.847543,-0.741926,0.000000,2.879169,0.000000,1.548256
LINE527,65.847062,-0.748231,0.000000,0.243399,0.000000,4.655319
LINE528,65.070790,-0.755999,0.000000,0.182551,0.000000,1.001183
LINE529,0.000000,1.513237,0.000000,0.976578,113.641463,1.162246
LINE530,444.142542,-0.751790,842.326378,3.326948,285.070372,1.135912
LINE531,0.000000,-0.225824,0.000000,4.097673,0.000000,1.687547
LINE532,0.000000,1.065393,335.706174,3.300565,55.286823,1.148076
LINE533,0.000000,-0.693311,0.000000,2.555998,0.000000,4.618751
LINE534,131.847543,-0.741926,0.000000,2.864968,0.000000,1.548669
LINE535,65.847062,-0.748231,0.000000,1.583279,0.000000,4.377561
LINE536,65.070790,-0.755999,0.000000,0.149238,0.000000,1.176641
LINE537,0.000000,2.129078,0.000000,3.483140,56.855595,1.162397
LINE538,0.000000,2.369122,0.000000,3.774668,56.785870,1.162095
LINE539,444.142542,-0.751790,842.326378,3.326948,285.070372,1.135912
LINE540,0.000000,-0.441737,0.000000,3.954368,0.000000,1.863802
LINE541,0.000000,0.982122,335.706174,3.300565,55.286823,1.148076
LINE542,0.000000,2.916106,0.000000,-0.687822,0.000000,2.695735
LINE543,131.847543,-0.741926,0.000000,2.917210,0.000000,1.538389
LINE544,65.847062,-0.748231,0.000000,-0.372984,0.000000,4.626239
LINE545,65.070790,-0.755999,0.000000,0.155281,0.000000,1.180305
LINE546,0.000000,0.248120,0.000000,3.081010,56.855595,1.162397
LINE547,444.142542,-0.751790,842.326378,3.326948,285.070372,1.135912
LINE548,0.000000,-0.278040,0.000000,3.297764,0.000000,1.633692
LINE549,0.000000,0.977652,335.706174,3.300565,55.286823,1.148076
LINE550,0.000000,-0.057495,0.000000,-0.057495,0.000000,-0.057495
LINE551,65.920176,-0.741940,0.000000,2.950611,0.000000,1.508077
LINE552,65.927367,-0.741913,0.000000,-0.341587,0.000000,1.602984
LINE553,65.847062,-0.748231,0.000000,4.004458,0.000000,4.004460
LINE554,65.070790,-0.755999,0.000000,0.082132,0.000000,1.150170
LINE555,0.000000,-0.234339,0.000000,1.206908,56.855595,1.162397
LINE556,444.142542,-0.751790,842.326378,3.326948,285.070372,1.135912
LINE557,0.000000,2.470244,0.000000,3.141343,0.000000,2.137310
LINE558,0.000000,0.984593,335.706174,3.300565,55.286823,1.148076
LINE559,0.000000,1.369116,0.000000,4.566983,0.000000,1.369116
LINE560,65.920176,-0.741940,0.000000,2.944627,0.000000,1.569316
LINE561,65.927367,-0.741913,0.000000,-0.152917,0.000000,1.615423
LINE562,65.847062,-0.748231,0.000000,0.020320,0.000000,-1.065142
LINE563,65.070790,-0.755999,0.000000,0.150977,0.000000,1.243141
LINE564,444.142542,-0.751790,842.326378,3.326948,285.070372,1.135912
LINE565,0.000000,0.703206,0.000000,0.703206,0.000000,0.703206
LINE566,0.000000,0.844109,111.548715,3.300422,55.286823,1.148076
LINE567,0.000000,2.888720,0.000000,-0.719324,0.000000,4.663398
LINE568,0.000000,2.427865,224.157460,3.300636,0.000000,-1.350649
LINE569,65.920176,-0.741940,0.000000,3.067408,0.000000,1.615322
LINE570,65.070790,-0.755999,0.000000,0.127474,0.000000,0.711788
LINE571,444.142542,-0.751790,842.326378,3.326948,285.070372,1.135912
LINE572,0.000000,1.333309,111.548715,3.300422,55.286823,1.148076
LINE573,0.000000,3.000837,0.000000,-0.201681,0.000000,-0.448046
LINE574,0.000000,2.412268,224.157460,3.300636,0.000000,-1.326965
LINE575,65.920176,-0.741940,0.000000,3.146528,0.000000,1.582510
LINE576,65.070790,-0.755999,0.000000,0.287476,0.000000,-0.227119
LINE577,444.142542,-0.751790,842.326378,3.326948,285.070372,1.135912
LINE578,0.000000,0.440664,111.548715,3.300422,55.286823,1.148076
LINE579,0.000000,3.667635,0.000000,2.514132,0.000000,3.667635
LINE580,0.000000,1.530935,0.000000,1.233715,0.000000,4.612151
LINE581,0.000000,2.077837,224.157460,3.300636,0.000000,-1.288206
LINE582,65.920176,-0.741940,0.000000,2.996985,0.000000,1.609200
LINE583,65.070790,-0.755999,0.000000,0.534185,0.000000,1.338702
LINE584,0.000000,-0.747987,101.681682,3.309891,0.000000,1.549380
LINE585,444.142542,-0.751790,740.661519,3.329289,285.070372,1.135912
LINE586,0.000000,0.439883,111.548715,3.300422,55.286823,1.148076
LINE587,0.000000,0.000000,0.000000,0.000000,0.000000,0.000000
LINE588,0.000000,1.126963,0.000000,1.482670,0.000000,4.498488
LINE589,0.000000,2.124052,224.157460,3.300636,0.000000,-1.399199
LINE590,65.920176,-0.741940,0.000000,-0.108263,0.000000,1.759815
LINE591,65.070790,-0.755999,0.000000,0.406342,0.000000,1.237207
LINE592,0.000000,-0.625182,101.681682,3.309891,0.000000,1.547257
LINE593,444.142542,-0.751790,740.661519,3.329289,285.070372,1.135912
LINE594,0.000000,3.520412,111.548715,3.300422,0.000000,1.078239
LINE595,0.000000,0.535942,0.000000,1.651483,55.286823,1.148076
LINE596,0.000000,1.145743,0.000000,1.657032,0.000000,4.528542
LINE597,0.000000,2.062508,224.157460,3.300636,0.000000,-1.422465
LINE598,65.920176,-0.741940,0.000000,3.803864,0.000000,1.404881
LINE599,65.070790,-0.755999,0.000000,1.246059,0.000000,1.336287
LINE600,0.000000,-0.573692,101.681682,3.309891,0.000000,1.558034
LINE601,0.000000,0.692202,0.000000,0.086126,56.761560,1.147502
LINE602,444.142542,-0.751790,740.661519,3.329289,228.313571,1.133031
LINE603,0.000000,2.994581,111.548715,3.300422,0.000000,-1.147477
LINE604,0.000000,2.973656,0.000000,2.973656,0.000000,1.829002
LINE605,0.000000,2.997730,0.000000,3.299531,0.000000,-1.310675
LINE606,0.000000,2.582079,0.000000,4.135861,55.286823,1.148076
LINE607,0.000000,0.000000,0.000000,0.000000,0.000000,0.000000
LINE608,0.000000,0.773236,0.000000,1.636426,0.000000,4.548599
LINE609,0.000000,2.046922,224.157460,3.300636,0.000000,-1.428017
LINE610,65.920176,-0.741940,0.000000,0.370513,0.000000,-1.553703
LINE611,65.070790,-0.755999,0.000000,0.172365,0.000000,1.569017
LINE612,0.000000,-0.503483,101.681682,3.309891,0.000000,1.525800
LINE613,0.000000,4.207370,0.000000,3.466477,56.761560,1.147502
LINE614,444.142542,-0.751790,740.661519,3.329289,228.313571,1.133031
LINE615,0.000000,2.908925,111.548715,3.300422,0.000000,1.338129
LINE616,0.000000,3.655275,0.000000,-1.539050,0.000000,4.294681
LINE617,0.000000,4.510708,0.000000,4.264343,0.000000,1.430041
LINE618,0.000000,2.843866,0.000000,1.637795,55.286823,1.148076
LINE619,0.000000,0.386890,0.000000,1.738892,0.000000,4.643093
LINE620,0.000000,2.120960,224.157460,3.300636,0.000000,-1.417269
LINE621,65.070790,-0.755999,0.000000,0.928198,0.000000,1.826540
LINE622,0.000000,-0.324398,101.681682,3.309891,0.000000,1.559931
LINE623,0.000000,1.057962,104.968808,3.308996,0.000000,4.664684
LINE624,444.142542,-0.751790,635.717892,3.332640,228.313571,1.133031
LINE625,0.000000,3.074074,111.548715,3.300422,0.000000,1.367750
LINE626,0.000000,0.044572,0.000000,2.561449,0.000000,4.508999
LINE627,0.000000,2.222005,224.157460,3.300636,0.000000,-1.452787
LINE628,65.070790,-0.755999,0.000000,0.511386,0.000000,4.523127
LINE629,0.000000,-0.956717,101.681682,3.309891,0.000000,1.589251
LINE630,0.000000,1.099966,104.968808,3.308996,0.000000,4.640761
LINE631,444.142542,-0.751790,635.717892,3.332640,228.313571,1.133031
LINE632,0.000000,0.000000,111.548715,3.300422,0.000000,1.317930
LINE633,0.000000,0.510769,0.000000,2.592168,0.000000,4.348898
LINE634,0.000000,1.865751,224.157460,3.300636,0.000000,-1.342841
LINE635,0.000000,-0.573535,101.681682,3.309891,0.000000,1.572981
LINE636,0.000000,0.454105,104.968808,3.308996,0.000000,4.646301
LINE637,444.142542,-0.751790,635.717892,3.332640,228.313571,1.133031
LINE638,0.000000,0.000000,111.548715,3.300422,0.000000,0.000000
LINE639,0.000000,0.276964,0.000000,2.682994,0.000000,4.383826
LINE640,0.000000,2.038879,224.157460,3.300636,0.000000,-1.413522
LINE641,0.000000,-0.641543,101.681682,3.309891,0.000000,1.568153
LINE642,0.000000,0.362657,104.968808,3.308996,0.000000,4.655601
LINE643,444.142542,-0.751790,635.717892,3.332640,228.313571,1.133031
LINE644,0.000000,0.830779,0.000000,3.086844,0.000000,4.223191
LINE645,0.000000,2.483928,224.157460,3.300636,0.000000,-1.386521
LINE646,0.000000,-0.521678,101.681682,3.309891,0.000000,1.574067
LINE647,0.000000,1.966698,104.968808,3.308996,0.000000,4.645542
LINE648,444.142542,-0.751790,635.717892,3.332640,228.313571,1.133031
LINE649,0.000000,0.934869,0.000000,0.295033,0.000000,4.254707
LINE650,0.000000,2.609583,224.157460,3.300636,0.000000,-1.529146
LINE651,0.000000,-0.481075,101.681682,3.309891,0.000000,1.576981
LINE652,0.000000,2.230303,104.968808,3.308996,0.000000,4.614809
LINE653,444.142542,-0.751790,635.717892,3.332640,228.313571,1.133031
LINE654,0.000000,0.846782,0.000000,0.215894,0.000000,4.579978
LINE655,0.000000,3.142485,112.121963,3.300731,0.000000,-1.452351
LINE656,0.000000,-0.922053,112.035498,3.300541,0.000000,1.553486
LINE657,0.000000,-0.478015,101.681682,3.309891,0.000000,1.574413
LINE658,0.000000,2.351594,104.968808,3.308996,0.000000,4.599457
LINE659,444.142542,-0.751790,635.717892,3.332640,228.313571,1.133031
LINE660,0.000000,0.710760,0.000000,1.966917,0.000000,1.742745
LINE661,0.000000,3.110993,112.121963,3.300731,0.000000,1.553512
LINE662,0.000000,-0.070465,112.035498,3.300541,0.000000,1.838717
LINE663,0.000000,-0.452303,101.681682,3.309891,0.000000,1.561638
LINE664,0.000000,1.403483,104.968808,3.308996,0.000000,4.582104
LINE665,444.142542,-0.751790,635.717892,3.332640,228.313571,1.133031
LINE666,0.000000,1.399200,0.000000,1.378678,0.000000,1.850658
LINE667,0.000000,3.236929,112.121963,3.300731,0.000000,4.327310
LINE668,0.000000,0.979118,112.035498,3.300541,0.000000,1.823094
LINE669,0.000000,-0.514157,101.681682,3.309891,0.000000,1.557203
LINE670,0.000000,-0.312349,104.968808,3.308996,0.000000,4.591440
LINE671,190.924342,-0.763126,0.000000,0.525420,0.000000,3.998904
LINE672,253.239718,-0.743243,635.717892,3.332640,228.313571,1.133031
LINE673,0.000000,0.182892,0.000000,-0.639139,0.000000,1.753186
LINE674,0.000000,-0.712099,112.121963,3.300731,0.000000,1.030738
LINE675,0.000000,0.982994,112.035498,3.300541,0.000000,1.574316
LINE676,0.000000,-0.511927,101.681682,3.309891,0.000000,1.554093
LINE677,0.000000,-0.235890,104.968808,3.308996,0.000000,-1.568147
LINE678,190.924342,-0.763126,0.000000,0.443465,0.000000,4.238335
LINE679,253.239718,-0.743243,635.717892,3.332640,228.313571,1.133031
LINE680,0.000000,0.000000,0.000000,0.000000,0.000000,0.000000
LINE681,0.000000,-1.405282,112.121963,3.300731,0.000000,-1.405301
LINE682,0.000000,-0.378926,101.681682,3.309891,0.000000,1.553378
LINE683,0.000000,-0.598396,104.968808,3.308996,0.000000,1.590254
LINE684,190.924342,-0.763126,0.000000,0.533321,0.000000,4.354789
LINE685,253.239718,-0.743243,635.717892,3.332640,228.313571,1.133031
LINE686,0.000000,-0.390992,101.681682,3.309891,0.000000,1.546543
LINE687,0.000000,-0.232616,104.968808,3.308996,0.000000,0.919870
LINE688,190.924342,-0.763126,0.000000,0.590938,0.000000,4.326342
LINE689,0.000000,3.778301,0.000000,-0.090468,114.036356,1.142297
LINE690,253.239718,-0.743243,635.717892,3.332640,114.286995,1.123786
LINE691,0.000000,-0.452630,101.681682,3.309891,0.000000,1.534084
LINE692,190.924342,-0.763126,0.000000,0.508660,0.000000,4.285747
LINE693,0.000000,3.746462,0.000000,-0.087905,57.025700,1.142329
LINE694,0.000000,-1.190909,0.000000,3.010141,57.010657,1.142264
LINE695,0.000000,0.013061,110.791123,3.311908,0.000000,1.596313
LINE696,253.239718,-0.743243,524.955603,3.337015,114.286995,1.123786
LINE697,0.000000,-0.655265,101.681682,3.309891,0.000000,1.520584
LINE698,190.924342,-0.763126,0.000000,0.598863,0.000000,4.117124
LINE699,0.000000,3.529227,0.000000,-0.071580,57.025700,1.142329
LINE700,0.000000,2.800707,0.000000,3.306265,57.010657,1.142264
LINE701,0.000000,2.843456,110.791123,3.311908,0.000000,1.674452
LINE702,253.239718,-0.743243,524.955603,3.337015,114.286995,1.123786
LINE703,0.000000,-0.568971,101.681682,3.309891,0.000000,1.514662
LINE704,190.924342,-0.763126,0.000000,0.539174,0.000000,4.410628
LINE705,0.000000,3.835345,0.000000,-0.054837,57.025700,1.142329
LINE706,253.239718,-0.743243,524.955603,3.337015,114.286995,1.123786
LINE707,0.000000,2.768820,0.000000,1.090162,0.000000,4.589183
LINE708,0.000000,-0.576185,101.681682,3.309891,0.000000,1.516444
LINE709,190.924342,-0.763126,0.000000,0.560623,0.000000,4.380722
LINE710,0.000000,3.931499,0.000000,-0.244227,57.025700,1.142329
LINE711,126.570308,-0.733927,524.955603,3.337015,114.286995,1.123786
LINE712,126.680389,-0.752551,0.000000,3.118955,0.000000,1.602995
LINE713,0.000000,2.628206,0.000000,0.989546,0.000000,4.556893
LINE714,0.000000,-0.861520,101.681682,3.309891,0.000000,1.502890
LINE715,190.924342,-0.763126,0.000000,0.558026,0.000000,4.369353
LINE716,0.000000,3.296911,0.000000,0.070142,57.025700,1.142329
LINE717,126.570308,-0.733927,524.955603,3.337015,114.286995,1.123786
LINE718,126.680389,-0.752551,0.000000,3.107221,0.000000,1.584959
LINE719,0.000000,2.660228,0.000000,0.758252,0.000000,4.578458
LINE720,0.000000,-0.423063,101.681682,3.309891,0.000000,1.532240
LINE721,190.924342,-0.763126,0.000000,0.590661,0.000000,4.385609
LINE722,0.000000,3.262352,0.000000,0.005825,57.025700,1.142329
LINE723,126.570308,-0.733927,278.030717,3.344385,114.286995,1.123786
LINE724,0.000000,-0.453699,246.940936,3.328718,0.000000,1.479821
LINE725,126.680389,-0.752551,0.000000,3.177213,0.000000,1.582206
LINE726,0.000000,2.779419,0.000000,0.792886,0.000000,4.378960
LINE727,0.000000,4.504376,101.681682,3.309891,0.000000,1.517600
LINE728,190.924342,-0.763126,0.000000,0.565711,0.000000,4.325771
LINE729,0.000000,2.957758,0.000000,0.152491,57.025700,1.142329
LINE730,126.570308,-0.733927,278.030717,3.344385,114.286995,1.123786
LINE731,0.000000,-0.443561,246.940936,3.328718,0.000000,1.479299
LINE732,126.680389,-0.752551,0.000000,3.283534,0.000000,1.546737
LINE733,0.000000,2.613148,0.000000,0.817818,0.000000,4.510259
LINE734,0.000000,0.103483,101.681682,3.309891,0.000000,1.528024
LINE735,190.924342,-0.763126,0.000000,0.531041,0.000000,4.349853
LINE736,0.000000,2.912276,0.000000,0.087902,57.025700,1.142329
LINE737,126.570308,-0.733927,278.030717,3.344385,114.286995,1.123786
LINE738,0.000000,-0.448247,246.940936,3.328718,0.000000,1.472732
LINE739,126.680389,-0.752551,0.000000,3.377399,0.000000,1.476379
LINE740,0.000000,2.465060,0.000000,0.817970,0.000000,4.200899
LINE741,0.000000,-0.044537,101.681682,3.309891,0.000000,1.509705
LINE742,190.924342,-0.763126,0.000000,0.544645,0.000000,4.405261
LINE743,0.000000,3.588156,0.000000,4.027552,57.025700,1.142329
LINE744,126.570308,-0.733927,278.030717,3.344385,114.286995,1.123786
LINE745,0.000000,-0.891940,123.557723,3.328891,0.000000,-1.477054
LINE746,0.000000,-0.465286,123.383217,3.328544,0.000000,1.458908
LINE747,126.680389,-0.752551,0.000000,3.369728,0.000000,1.423942
LINE748,0.000000,2.492999,0.000000,0.765821,0.000000,4.204416
LINE749,0.000000,3.531984,101.681682,3.309891,0.000000,0.860585
LINE750,190.924342,-0.763126,0.000000,0.417129,0.000000,4.455729
LINE751,0.000000,3.235086,0.000000,3.428955,57.025700,1.142329
LINE752,126.570308,-0.733927,278.030717,3.344385,0.000000,1.361033
LINE753,0.000000,-0.763864,0.000000,4.274279,114.286995,1.123786
LINE754,0.000000,4.185432,123.557723,3.328891,0.000000,1.344185
LINE755,0.000000,-0.579012,123.383217,3.328544,0.000000,1.375861
LINE756,126.680389,-0.752551,0.000000,3.270607,0.000000,1.331842
LINE757,0.000000,2.514061,0.000000,0.769308,0.000000,4.340129
LINE758,0.000000,1.817782,101.681682,3.309891,0.000000,4.590610
LINE759,190.924342,-0.763126,0.000000,0.521642,0.000000,4.422140
LINE760,0.000000,3.554590,0.000000,3.066797,57.025700,1.142329
LINE761,126.570308,-0.733927,278.030717,3.344385,0.000000,1.370683
LINE762,0.000000,-0.771655,0.000000,4.287476,114.286995,1.123786
LINE763,0.000000,-0.194321,123.383217,3.328544,0.000000,1.311248
LINE764,126.680389,-0.752551,0.000000,3.232402,0.000000,1.274608
LINE765,0.000000,2.823498,0.000000,0.703600,0.000000,4.341405
LINE766,0.000000,2.657261,101.681682,3.309891,0.000000,1.487721
LINE767,190.924342,-0.763126,0.000000,0.521718,0.000000,4.470298
LINE768,0.000000,0.161653,0.000000,4.103650,57.025700,1.142329
LINE769,126.570308,-0.733927,278.030717,3.344385,0.000000,1.378681
LINE770,0.000000,-0.658824,0.000000,3.286346,57.155861,1.123839
LINE771,0.000000,-0.743924,0.000000,4.100765,57.131133,1.123732
LINE772,0.000000,-0.002147,123.383217,3.328544,0.000000,1.373298
LINE773,126.680389,-0.752551,0.000000,3.251118,0.000000,1.344005
LINE774,0.000000,3.004148,0.000000,0.735223,0.000000,3.916959
LINE775,0.000000,3.942979,101.681682,3.309891,0.000000,1.709413
LINE776,190.924342,-0.763126,0.000000,0.458399,0.000000,4.455995
LINE777,0.000000,2.260657,0.000000,0.281402,57.025700,1.142329
LINE778,126.570308,-0.733927,278.030717,3.344385,0.000000,1.367942
LINE779,0.000000,-0.627452,0.000000,-1.509428,57.155861,1.123839
LINE780,0.000000,-0.772415,0.000000,3.862972,57.131133,1.123732
LINE781,0.000000,0.136370,123.383217,3.328544,0.000000,1.404269
LINE782,126.680389,-0.752551,0.000000,3.243727,0.000000,1.384989
LINE783,0.000000,2.980619,0.000000,0.522406,0.000000,2.849619
LINE784,0.000000,2.642515,101.681682,3.309891,0.000000,2.149382
LINE785,190.924342,-0.763126,0.000000,0.485864,0.000000,4.428595
LINE786,126.570308,-0.733927,278.030717,3.344385,0.000000,1.363553
LINE787,0.000000,-0.888121,0.000000,3.774549,57.131133,1.123732
LINE788,0.000000,-0.573966,123.383217,3.328544,0.000000,1.330701
LINE789,126.680389,-0.752551,0.000000,3.257179,0.000000,1.287890
LINE790,0.000000,3.082046,0.000000,0.430619,0.000000,1.042309
LINE791,127.282524,-0.763127,0.000000,0.329435,0.000000,4.089999
LINE792,63.641818,-0.763125,0.000000,3.554524,0.000000,4.648802
LINE793,126.570308,-0.733927,278.030717,3.344385,0.000000,1.377300
LINE794,0.000000,-0.529904,0.000000,3.323574,57.131133,1.123732
LINE795,0.000000,0.210302,123.383217,3.328544,0.000000,1.539329
LINE796,126.680389,-0.752551,0.000000,3.213454,0.000000,1.260935
LINE797,0.000000,3.183323,0.000000,-0.114266,0.000000,-1.245864
LINE798,127.282524,-0.763127,0.000000,0.254312,0.000000,2.434015
LINE799,63.641818,-0.763125,0.000000,3.670817,0.000000,1.419809
LINE800,126.570308,-0.733927,0.000000,3.323814,0.000000,1.372764
LINE801,0.000000,3.212240,278.030717,3.344385,0.000000,-0.670177
LINE802,0.000000,-0.644821,0.000000,3.793568,57.131133,1.123732
LINE803,0.000000,0.932525,123.383217,3.328544,0.000000,4.451250
LINE804,126.680389,-0.752551,0.000000,3.306535,0.000000,1.304816
LINE805,0.000000,2.824766,0.000000,0.148503,0.000000,4.537194
LINE806,127.282524,-0.763127,0.000000,0.293861,0.000000,4.296555
LINE807,63.641818,-0.763125,0.000000,3.443447,0.000000,2.285388
LINE808,126.570308,-0.733927,0.000000,3.348455,0.000000,1.409023
LINE809,0.000000,2.885902,278.030717,3.344385,0.000000,-1.169865
LINE810,0.000000,0.038112,0.000000,0.038112,0.000000,1.097932
LINE811,0.000000,-0.649834,0.000000,4.285500,57.131133,1.123732
LINE812,0.000000,-0.339222,123.383217,3.328544,0.000000,-1.501817
LINE813,126.680389,-0.752551,0.000000,3.270479,0.000000,1.241362
LINE814,0.000000,2.338727,0.000000,-1.135148,0.000000,1.351180
LINE815,127.282524,-0.763127,0.000000,0.320222,0.000000,2.934583
LINE816,63.641818,-0.763125,0.000000,-0.263825,0.000000,0.544032
LINE817,126.570308,-0.733927,0.000000,3.418459,0.000000,1.416447
LINE818,0.000000,2.526521,278.030717,3.344385,0.000000,1.763658
LINE819,0.000000,-1.248977,0.000000,4.174457,0.000000,2.054920
LINE820,0.000000,-0.588202,0.000000,0.236007,57.131133,1.123732
LINE821,126.680389,-0.752551,0.000000,3.271149,0.000000,1.324495
LINE822,0.000000,2.330528,0.000000,3.877620,0.000000,1.286736
LINE823,127.282524,-0.763127,0.000000,-0.173389,0.000000,1.649279
LINE824,126.570308,-0.733927,0.000000,3.293930,0.000000,1.339580
LINE825,0.000000,2.329077,278.030717,3.344385,0.000000,4.521146
LINE826,0.000000,0.000000,0.000000,0.000000,0.000000,0.000000
LINE827,0.000000,-0.560206,0.000000,0.372991,57.131133,1.123732
LINE828,126.680389,-0.752551,0.000000,3.249628,0.000000,1.342437
LINE829,0.000000,-0.201681,0.000000,-0.201681,0.000000,2.996186
LINE830,127.282524,-0.763127,0.000000,0.032477,0.000000,1.716680
LINE831,126.570308,-0.733927,0.000000,3.347467,0.000000,0.253649
LINE832,0.000000,1.917928,278.030717,3.344385,0.000000,-1.235000
LINE833,0.000000,-1.403274,0.000000,2.764057,0.000000,-1.403274
LINE834,0.000000,0.984573,0.000000,3.755472,57.131133,1.123732
LINE835,126.680389,-0.752551,0.000000,3.285367,0.000000,1.302475
LINE836,127.282524,-0.763127,0.000000,-1.137025,0.000000,1.462545
LINE837,126.570308,-0.733927,0.000000,1.248921,0.000000,-1.282823
LINE838,0.000000,1.603100,278.030717,3.344385,0.000000,4.311902
LINE839,0.000000,2.037157,0.000000,0.157938,0.000000,-0.727430
LINE840,126.680389,-0.752551,0.000000,3.300946,0.000000,1.298159
LINE841,127.282524,-0.763127,0.000000,0.006510,0.000000,1.362340
LINE842,126.570308,-0.733927,0.000000,0.624980,0.000000,-1.374384
LINE843,0.000000,1.122771,278.030717,3.344385,0.000000,3.311910
LINE844,0.000000,1.895732,0.000000,0.662811,0.000000,1.123874
LINE845,0.000000,0.000000,0.000000,0.000000,0.000000,0.000000
LINE846,126.680389,-0.752551,0.000000,3.315934,0.000000,1.293252
LINE847,127.282524,-0.763127,0.000000,3.596906,0.000000,1.570577
LINE848,126.570308,-0.733927,0.000000,0.327840,0.000000,-1.489359
LINE849,0.000000,1.503278,278.030717,3.344385,0.000000,3.564031
LINE850,0.000000,0.777355,0.000000,0.583245,0.000000,1.311269
LINE851,0.000000,1.012265,0.000000,2.708338,0.000000,1.697237
LINE852,126.680389,-0.752551,0.000000,3.251846,0.000000,0.872573
LINE853,127.282524,-0.763127,0.000000,-0.762667,0.000000,1.424647
LINE854,126.570308,-0.733927,0.000000,1.324773,0.000000,-0.464377
LINE855,0.000000,1.224978,278.030717,3.344385,0.000000,3.789818
LINE856,0.000000,0.707468,0.000000,0.379705,0.000000,1.011565
LINE857,0.000000,-0.201681,0.000000,-0.201681,0.000000,2.996186
LINE858,126.680389,-0.752551,0.000000,3.296693,0.000000,1.153349
LINE859,63.586815,-0.763338,0.000000,1.571788,0.000000,-1.415415
LINE860,63.695713,-0.762916,0.000000,3.045577,0.000000,4.652007
LINE861,126.570308,-0.733927,0.000000,1.298321,0.000000,-0.500119
LINE862,0.000000,1.503278,278.030717,3.344385,0.000000,3.711623
LINE863,0.000000,0.228265,0.000000,0.266897,0.000000,0.393136
LINE864,0.000000,0.000000,0.000000,0.000000,0.000000,0.000000
LINE865,126.680389,-0.752551,0.000000,3.219259,0.000000,-0.588526
LINE866,126.570308,-0.733927,0.000000,1.377057,0.000000,-0.361979
LINE867,0.000000,0.717880,278.030717,3.344385,0.000000,2.146779
LINE868,0.000000,0.260502,0.000000,0.676960,0.000000,-1.327419
LINE869,0.000000,0.575127,0.000000,2.892722,0.000000,3.865361
LINE870,126.680389,-0.752551,0.000000,2.738759,0.000000,-0.691664
LINE871,126.570308,-0.733927,0.000000,1.440670,0.000000,-0.160578
LINE872,0.000000,-0.067519,139.257038,3.344821,0.000000,1.862048
LINE873,0.000000,3.074074,138.773706,3.343947,0.000000,0.000000
LINE874,0.000000,0.386196,0.000000,-0.131394,0.000000,-1.350035
LINE875,0.000000,-1.140692,0.000000,-0.828577,0.000000,1.304994
LINE876,126.680389,-0.752551,0.000000,3.225504,0.000000,0.135233
LINE877,126.570308,-0.733927,0.000000,1.571757,0.000000,0.217509
LINE878,0.000000,-0.232667,139.257038,3.344821,0.000000,1.503278
LINE879,0.000000,-0.067519,138.773706,3.343947,0.000000,1.565697
LINE880,0.000000,0.289258,0.000000,-1.502586,0.000000,4.401201
LINE881,0.000000,1.158022,0.000000,-1.432589,0.000000,4.128007
LINE882,126.680389,-0.752551,0.000000,2.284383,0.000000,1.409976
LINE883,126.570308,-0.733927,0.000000,1.052606,0.000000,-0.213124
LINE884,0.000000,-0.067519,139.257038,3.344821,0.000000,4.286100
LINE885,0.000000,0.000000,138.773706,3.343947,0.000000,0.000000
LINE886,126.680389,-0.752551,0.000000,3.087082,0.000000,4.336817
LINE887,63.292440,-0.733850,0.000000,1.259461,0.000000,0.455740
LINE888,63.277868,-0.734004,0.000000,4.574159,0.000000,1.120862
LINE889,0.000000,0.000000,139.257038,3.344821,0.000000,3.074074
LINE890,126.680389,-0.752551,0.000000,4.410510,0.000000,4.651290
LINE891,63.292440,-0.733850,0.000000,1.288395,0.000000,0.635010
LINE892,63.277868,-0.734004,0.000000,4.516844,0.000000,1.480614
LINE893,0.000000,3.074074,139.257038,3.344821,0.000000,3.074074
LINE894,63.413895,-0.752264,0.000000,3.608122,0.000000,4.680791
LINE895,63.266499,-0.752838,0.000000,3.565470,0.000000,-1.446996
LINE896,63.292440,-0.733850,0.000000,0.775484,0.000000,0.658720
LINE897,63.277868,-0.734004,0.000000,3.280056,0.000000,4.213433
LINE898,0.000000,0.000000,139.257038,3.344821,0.000000,0.000000
LINE899,63.413895,-0.752264,0.000000,1.003817,0.000000,-1.394427
LINE900,63.292440,-0.733850,0.000000,-0.257870,0.000000,0.665518
LINE901,63.292440,-0.733850,0.000000,2.492088,0.000000,1.307274
LINE902,63.292440,-0.733850,0.000000,3.043909,0.000000,-0.034611
LINE903,63.292440,-0.733850,0.000000,0.007129,0.000000,2.083235
LINE904,63.292440,-0.733850,0.000000,2.970569,0.000000,1.316126
LINE905,63.292440,-0.733850,0.000000,2.347438,0.000000,-1.563825
